132

C          4.93469       -0.00000        4.27594
C          4.75971        0.71231        3.05888
C          4.24892       -0.00000        1.94042
C          3.44372        0.71231        1.01117
C          2.40934       -0.00000        0.34641
C          1.22957        0.71231        0.00000
C          0.00000        0.00000        0.00000
C         -1.17977        0.71231        0.34641
C         -2.21415       -0.00000        1.01117
C         -3.01935        0.71231        1.94042
C         -3.53013       -0.00000        3.05888
C         -3.70512        0.71231        4.27594
C         -3.53013       -0.00000        5.49299
C         -3.01935        0.71231        6.61145
C         -2.21415       -0.00000        7.54070
C         -1.17977        0.71231        8.20546
C         -0.00000       -0.00000        8.55187
C          1.22957        0.71231        8.55187
C          2.40934       -0.00000        8.20546
C          3.44372        0.71231        7.54070
C          4.24892       -0.00000        6.61145
C          4.75971        0.71231        5.49299
C          4.75971        2.13331        3.05888
C          4.24892        2.84563        1.94042
C          3.44372        2.13331        1.01117
C          2.40934        2.84563        0.34641
C          1.22957        2.13331        0.00000
C          0.00000        2.84563        0.00000
C         -1.17977        2.13331        0.34641
C         -2.21415        2.84563        1.01117
C         -3.01935        2.13331        1.94042
C         -3.53013        2.84563        3.05888
C         -3.70512        2.13331        4.27594
C         -3.53013        2.84563        5.49299
C         -3.01935        2.13331        6.61145
C         -2.21415        2.84563        7.54070
C         -1.17977        2.13331        8.20546
C         -0.00000        2.84563        8.55187
C          1.22957        2.13331        8.55187
C          2.40934        2.84563        8.20546
C          3.44372        2.13331        7.54070
C          4.24892        2.84563        6.61145
C          4.75971        2.13331        5.49299
C          4.93469        2.84563        4.27594
C 4.93469 4.2600000000 4.27594
C 4.75971 4.9723100000 3.05888
C 4.24892 4.2600000000 1.94042
C 3.44372 4.9723100000 1.01117
C 2.40934 4.2600000000 0.34641
C 1.22957 4.9723100000 0.00000
C 0.00000 4.2600000000 0.00000
C -1.17977 4.9723100000 0.34641
C -2.21415 4.2600000000 1.01117
C -3.01935 4.9723100000 1.94042
C -3.53013 4.2600000000 3.05888
C -3.70512 4.9723100000 4.27594
C -3.53013 4.2600000000 5.49299
C -3.01935 4.9723100000 6.61145
C -2.21415 4.2600000000 7.54070
C -1.17977 4.9723100000 8.20546
C -0.00000 4.2600000000 8.55187
C 1.22957 4.9723100000 8.55187
C 2.40934 4.2600000000 8.20546
C 3.44372 4.9723100000 7.54070
C 4.24892 4.2600000000 6.61145
C 4.75971 4.9723100000 5.49299
C 4.75971 6.3933100000 3.05888
C 4.24892 7.1056300000 1.94042
C 3.44372 6.3933100000 1.01117
C 2.40934 7.1056300000 0.34641
C 1.22957 6.3933100000 0.00000
C 0.00000 7.1056300000 0.00000
C -1.17977 6.3933100000 0.34641
C -2.21415 7.1056300000 1.01117
C -3.01935 6.3933100000 1.94042
C -3.53013 7.1056300000 3.05888
C -3.70512 6.3933100000 4.27594
C -3.53013 7.1056300000 5.49299
C -3.01935 6.3933100000 6.61145
C -2.21415 7.1056300000 7.54070
C -1.17977 6.3933100000 8.20546
C -0.00000 7.1056300000 8.55187
C 1.22957 6.3933100000 8.55187
C 2.40934 7.1056300000 8.20546
C 3.44372 6.3933100000 7.54070
C 4.24892 7.1056300000 6.61145
C 4.75971 6.3933100000 5.49299
C 4.93469 7.1056300000 4.27594
C 4.93469 8.5200000000 4.27594
C 4.75971 9.2323100000 3.05888
C 4.24892 8.5200000000 1.94042
C 3.44372 9.2323100000 1.01117
C 2.40934 8.5200000000 0.34641
C 1.22957 9.2323100000 0.00000
C 0.00000 8.5200000000 0.00000
C -1.17977 9.2323100000 0.34641
C -2.21415 8.5200000000 1.01117
C -3.01935 9.2323100000 1.94042
C -3.53013 8.5200000000 3.05888
C -3.70512 9.2323100000 4.27594
C -3.53013 8.5200000000 5.49299
C -3.01935 9.2323100000 6.61145
C -2.21415 8.5200000000 7.54070
C -1.17977 9.2323100000 8.20546
C -0.00000 8.5200000000 8.55187
C 1.22957 9.2323100000 8.55187
C 2.40934 8.5200000000 8.20546
C 3.44372 9.2323100000 7.54070
C 4.24892 8.5200000000 6.61145
C 4.75971 9.2323100000 5.49299
C 4.75971 10.6533100000 3.05888
C 4.24892 11.3656300000 1.94042
C 3.44372 10.6533100000 1.01117
C 2.40934 11.3656300000 0.34641
C 1.22957 10.6533100000 0.00000
C 0.00000 11.3656300000 0.00000
C -1.17977 10.6533100000 0.34641
C -2.21415 11.3656300000 1.01117
C -3.01935 10.6533100000 1.94042
C -3.53013 11.3656300000 3.05888
C -3.70512 10.6533100000 4.27594
C -3.53013 11.3656300000 5.49299
C -3.01935 10.6533100000 6.61145
C -2.21415 11.3656300000 7.54070
C -1.17977 10.6533100000 8.20546
C -0.00000 11.3656300000 8.55187
C 1.22957 10.6533100000 8.55187
C 2.40934 11.3656300000 8.20546
C 3.44372 10.6533100000 7.54070
C 4.24892 11.3656300000 6.61145
C 4.75971 10.6533100000 5.49299
C 4.93469 11.3656300000 4.27594
