132

C          6.51290        0.46581        0.00000
C          5.52858        1.20267        0.71231
C          4.37652        1.63236        0.00000
C          3.15008        1.72007        0.71231
C          1.94861        1.45871        0.00000
C          0.86944        0.86944        0.71231
C          0.00000        0.00000        0.00000
C         -0.58927       -1.07917        0.71231
C         -0.85064       -2.28065        0.00000
C         -0.76292       -3.50709        0.71231
C         -0.33322       -4.65913        0.00000
C          0.40363       -5.64346        0.71231
C          1.38795       -6.38031        0.00000
C          2.54000       -6.81000        0.71231
C          3.76644       -6.89772        0.00000
C          4.96791       -6.63636        0.71231
C          6.04709       -6.04709        0.00000
C          6.91652       -5.17765        0.71231
C          7.50580       -4.09848        0.00000
C          7.76716       -2.89700        0.71231
C          7.67944       -1.67056        0.00000
C          7.24975       -0.51851        0.71231
C          5.52858        1.20267        2.13331
C          4.37652        1.63236        2.84563
C          3.15008        1.72007        2.13331
C          1.94861        1.45871        2.84563
C          0.86944        0.86944        2.13331
C         -0.00000        0.00000        2.84563
C         -0.58927       -1.07917        2.13331
C         -0.85064       -2.28065        2.84563
C         -0.76292       -3.50709        2.13331
C         -0.33322       -4.65913        2.84563
C          0.40363       -5.64346        2.13331
C          1.38795       -6.38031        2.84563
C          2.54000       -6.81000        2.13331
C          3.76644       -6.89772        2.84563
C          4.96791       -6.63636        2.13331
C          6.04709       -6.04709        2.84563
C          6.91652       -5.17765        2.13331
C          7.50580       -4.09848        2.84563
C          7.76716       -2.89700        2.13331
C          7.67944       -1.67056        2.84563
C          7.24975       -0.51851        2.13331
C          6.51290        0.46581        2.84563
C          6.51290        0.46581        4.26000
C          5.52858        1.20267        4.97231
C          4.37652        1.63236        4.26000
C          3.15008        1.72007        4.97231
C          1.94861        1.45871        4.26000
C          0.86944        0.86944        4.97231
C         -0.00000        0.00000        4.26000
C         -0.58927       -1.07917        4.97231
C         -0.85064       -2.28065        4.26000
C         -0.76292       -3.50709        4.97231
C         -0.33322       -4.65913        4.26000
C          0.40363       -5.64346        4.97231
C          1.38795       -6.38031        4.26000
C          2.54000       -6.81000        4.97231
C          3.76644       -6.89772        4.26000
C          4.96791       -6.63636        4.97231
C          6.04709       -6.04709        4.26000
C          6.91652       -5.17765        4.97231
C          7.50580       -4.09848        4.26000
C          7.76716       -2.89700        4.97231
C          7.67944       -1.67056        4.26000
C          7.24975       -0.51851        4.97231
C          5.52858        1.20267        6.39331
C          4.37652        1.63236        7.10563
C          3.15008        1.72007        6.39331
C          1.94861        1.45871        7.10563
C          0.86944        0.86944        6.39331
C         -0.00000        0.00000        7.10563
C         -0.58927       -1.07917        6.39331
C         -0.85064       -2.28065        7.10563
C         -0.76292       -3.50709        6.39331
C         -0.33322       -4.65913        7.10563
C          0.40363       -5.64346        6.39331
C          1.38795       -6.38031        7.10563
C          2.54000       -6.81000        6.39331
C          3.76644       -6.89772        7.10563
C          4.96791       -6.63636        6.39331
C          6.04709       -6.04709        7.10563
C          6.91652       -5.17765        6.39331
C          7.50580       -4.09848        7.10563
C          7.76716       -2.89700        6.39331
C          7.67944       -1.67056        7.10563
C          7.24975       -0.51851        6.39331
C          6.51290        0.46581        7.10563
C          6.51290        0.46581        8.52000
C          5.52858        1.20267        9.23231
C          4.37652        1.63236        8.52000
C          3.15008        1.72007        9.23231
C          1.94861        1.45871        8.52000
C          0.86944        0.86944        9.23231
C         -0.00000        0.00000        8.52000
C         -0.58927       -1.07917        9.23231
C         -0.85064       -2.28065        8.52000
C         -0.76292       -3.50709        9.23231
C         -0.33322       -4.65913        8.52000
C          0.40363       -5.64346        9.23231
C          1.38795       -6.38031        8.52000
C          2.54000       -6.81000        9.23231
C          3.76644       -6.89772        8.52000
C          4.96791       -6.63636        9.23231
C          6.04709       -6.04709        8.52000
C          6.91652       -5.17765        9.23231
C          7.50580       -4.09848        8.52000
C          7.76716       -2.89700        9.23231
C          7.67944       -1.67056        8.52000
C          7.24975       -0.51851        9.23231
C          5.52858        1.20267       10.65331
C          4.37652        1.63236       11.36563
C          3.15008        1.72007       10.65331
C          1.94861        1.45871       11.36563
C          0.86944        0.86944       10.65331
C         -0.00000        0.00000       11.36563
C         -0.58927       -1.07917       10.65331
C         -0.85064       -2.28065       11.36563
C         -0.76292       -3.50709       10.65331
C         -0.33322       -4.65913       11.36563
C          0.40363       -5.64346       10.65331
C          1.38795       -6.38031       11.36563
C          2.54000       -6.81000       10.65331
C          3.76644       -6.89772       11.36563
C          4.96791       -6.63636       10.65331
C          6.04709       -6.04709       11.36563
C          6.91652       -5.17765       10.65331
C          7.50580       -4.09848       11.36563
C          7.76716       -2.89700       10.65331
C          7.67944       -1.67056       11.36563
C          7.24975       -0.51851       10.65331
C          6.51290        0.46581       11.36563
