156

C          5.08880        0.00000        0.00000
C          4.94090        0.71000       -1.21780
C          4.50590        0.00000       -2.36490
C          3.80900        0.71000       -3.37450
C          2.89070        0.00000       -4.18800
C          1.80450        0.71000       -4.75810
C          0.61340        0.00000       -5.05170
C         -0.61340        0.71000       -5.05170
C         -1.80450        0.00000       -4.75810
C         -2.89070        0.71000       -4.18800
C         -3.80900        0.00000       -3.37450
C         -4.50590        0.71000       -2.36490
C         -4.94090        0.00000       -1.21780
C         -5.08880        0.71000        0.00000
C         -4.94090       -0.00000        1.21780
C         -4.50590        0.71000        2.36490
C         -3.80900       -0.00000        3.37450
C         -2.89070        0.71000        4.18800
C         -1.80450       -0.00000        4.75810
C         -0.61340        0.71000        5.05170
C          0.61340       -0.00000        5.05170
C          1.80450        0.71000        4.75810
C          2.89070       -0.00000        4.18800
C          3.80900        0.71000        3.37450
C          4.50590       -0.00000        2.36490
C          4.94090        0.71000        1.21780
C          4.94090        2.13000       -1.21780
C          4.50590        2.84000       -2.36490
C          3.80900        2.13000       -3.37450
C          2.89070        2.84000       -4.18800
C          1.80450        2.13000       -4.75810
C          0.61340        2.84000       -5.05170
C         -0.61340        2.13000       -5.05170
C         -1.80450        2.84000       -4.75810
C         -2.89070        2.13000       -4.18800
C         -3.80900        2.84000       -3.37450
C         -4.50590        2.13000       -2.36490
C         -4.94090        2.84000       -1.21780
C         -5.08880        2.13000        0.00000
C         -4.94090        2.84000        1.21780
C         -4.50590        2.13000        2.36490
C         -3.80900        2.84000        3.37450
C         -2.89070        2.13000        4.18800
C         -1.80450        2.84000        4.75810
C         -0.61340        2.13000        5.05170
C          0.61340        2.84000        5.05170
C          1.80450        2.13000        4.75810
C          2.89070        2.84000        4.18800
C          3.80900        2.13000        3.37450
C          4.50590        2.84000        2.36490
C          4.94090        2.13000        1.21780
C          5.08880        2.84000        0.00000
C          5.08880        4.26000        0.00000
C          4.94090        4.97000       -1.21780
C          4.50590        4.26000       -2.36490
C          3.80900        4.97000       -3.37450
C          2.89070        4.26000       -4.18800
C          1.80450        4.97000       -4.75810
C          0.61340        4.26000       -5.05170
C         -0.61340        4.97000       -5.05170
C         -1.80450        4.26000       -4.75810
C         -2.89070        4.97000       -4.18800
C         -3.80900        4.26000       -3.37450
C         -4.50590        4.97000       -2.36490
C         -4.94090        4.26000       -1.21780
C         -5.08880        4.97000        0.00000
C         -4.94090        4.26000        1.21780
C         -4.50590        4.97000        2.36490
C         -3.80900        4.26000        3.37450
C         -2.89070        4.97000        4.18800
C         -1.80450        4.26000        4.75810
C         -0.61340        4.97000        5.05170
C          0.61340        4.26000        5.05170
C          1.80450        4.97000        4.75810
C          2.89070        4.26000        4.18800
C          3.80900        4.97000        3.37450
C          4.50590        4.26000        2.36490
C          4.94090        4.97000        1.21780
C          4.94090        6.39000       -1.21780
C          4.50590        7.10000       -2.36490
C          3.80900        6.39000       -3.37450
C          2.89070        7.10000       -4.18800
C          1.80450        6.39000       -4.75810
C          0.61340        7.10000       -5.05170
C         -0.61340        6.39000       -5.05170
C         -1.80450        7.10000       -4.75810
C         -2.89070        6.39000       -4.18800
C         -3.80900        7.10000       -3.37450
C         -4.50590        6.39000       -2.36490
C         -4.94090        7.10000       -1.21780
C         -5.08880        6.39000        0.00000
C         -4.94090        7.10000        1.21780
C         -4.50590        6.39000        2.36490
C         -3.80900        7.10000        3.37450
C         -2.89070        6.39000        4.18800
C         -1.80450        7.10000        4.75810
C         -0.61340        6.39000        5.05170
C          0.61340        7.10000        5.05170
C          1.80450        6.39000        4.75810
C          2.89070        7.10000        4.18800
C          3.80900        6.39000        3.37450
C          4.50590        7.10000        2.36490
C          4.94090        6.39000        1.21780
C          5.08880        7.10000        0.00000
C          5.08880        8.52000        0.00000
C          4.94090        9.23000       -1.21780
C          4.50590        8.52000       -2.36490
C          3.80900        9.23000       -3.37450
C          2.89070        8.52000       -4.18800
C          1.80450        9.23000       -4.75810
C          0.61340        8.52000       -5.05170
C         -0.61340        9.23000       -5.05170
C         -1.80450        8.52000       -4.75810
C         -2.89070        9.23000       -4.18800
C         -3.80900        8.52000       -3.37450
C         -4.50590        9.23000       -2.36490
C         -4.94090        8.52000       -1.21780
C         -5.08880        9.23000        0.00000
C         -4.94090        8.52000        1.21780
C         -4.50590        9.23000        2.36490
C         -3.80900        8.52000        3.37450
C         -2.89070        9.23000        4.18800
C         -1.80450        8.52000        4.75810
C         -0.61340        9.23000        5.05170
C          0.61340        8.52000        5.05170
C          1.80450        9.23000        4.75810
C          2.89070        8.52000        4.18800
C          3.80900        9.23000        3.37450
C          4.50590        8.52000        2.36490
C          4.94090        9.23000        1.21780
C          4.94090       10.65000       -1.21780
C          4.50590       11.36000       -2.36490
C          3.80900       10.65000       -3.37450
C          2.89070       11.36000       -4.18800
C          1.80450       10.65000       -4.75810
C          0.61340       11.36000       -5.05170
C         -0.61340       10.65000       -5.05170
C         -1.80450       11.36000       -4.75810
C         -2.89070       10.65000       -4.18800
C         -3.80900       11.36000       -3.37450
C         -4.50590       10.65000       -2.36490
C         -4.94090       11.36000       -1.21780
C         -5.08880       10.65000        0.00000
C         -4.94090       11.36000        1.21780
C         -4.50590       10.65000        2.36490
C         -3.80900       11.36000        3.37450
C         -2.89070       10.65000        4.18800
C         -1.80450       11.36000        4.75810
C         -0.61340       10.65000        5.05170
C          0.61340       11.36000        5.05170
C          1.80450       10.65000        4.75810
C          2.89070       11.36000        4.18800
C          3.80900       10.65000        3.37450
C          4.50590       11.36000        2.36490
C          4.94090       10.65000        1.21780
C          5.08880       11.36000        0.00000
