156

C          3.59832        3.59832        0.00000
C          2.63263        4.35486        0.71000
C          1.51392        4.85839       -0.00000
C          0.30724        5.07950        0.71000
C         -0.91733        5.00540       -0.00000
C         -2.08851        4.64046        0.71000
C         -3.13835        4.00583       -0.00000
C         -4.00583        3.13835        0.71000
C         -4.64046        2.08851       -0.00000
C         -5.00540        0.91733        0.71000
C         -5.07950       -0.30724       -0.00000
C         -4.85839       -1.51392        0.71000
C         -4.35486       -2.63263       -0.00000
C         -3.59832       -3.59832        0.71000
C         -2.63263       -4.35486        0.00000
C         -1.51392       -4.85839        0.71000
C         -0.30724       -5.07950        0.00000
C          0.91733       -5.00540        0.71000
C          2.08851       -4.64046        0.00000
C          3.13835       -4.00583        0.71000
C          4.00583       -3.13835        0.00000
C          4.64046       -2.08851        0.71000
C          5.00540       -0.91733        0.00000
C          5.07950        0.30724        0.71000
C          4.85839        1.51392        0.00000
C          4.35486        2.63263        0.71000
C          2.63263        4.35486        2.13000
C          1.51392        4.85839        2.84000
C          0.30724        5.07950        2.13000
C         -0.91733        5.00540        2.84000
C         -2.08851        4.64046        2.13000
C         -3.13835        4.00583        2.84000
C         -4.00583        3.13835        2.13000
C         -4.64046        2.08851        2.84000
C         -5.00540        0.91733        2.13000
C         -5.07950       -0.30724        2.84000
C         -4.85839       -1.51392        2.13000
C         -4.35486       -2.63263        2.84000
C         -3.59832       -3.59832        2.13000
C         -2.63263       -4.35486        2.84000
C         -1.51392       -4.85839        2.13000
C         -0.30724       -5.07950        2.84000
C          0.91733       -5.00540        2.13000
C          2.08851       -4.64046        2.84000
C          3.13835       -4.00583        2.13000
C          4.00583       -3.13835        2.84000
C          4.64046       -2.08851        2.13000
C          5.00540       -0.91733        2.84000
C          5.07950        0.30724        2.13000
C          4.85839        1.51392        2.84000
C          4.35486        2.63263        2.13000
C          3.59832        3.59832        2.84000
C          3.59832        3.59832        4.26000
C          2.63263        4.35486        4.97000
C          1.51392        4.85839        4.26000
C          0.30724        5.07950        4.97000
C         -0.91733        5.00540        4.26000
C         -2.08851        4.64046        4.97000
C         -3.13835        4.00583        4.26000
C         -4.00583        3.13835        4.97000
C         -4.64046        2.08851        4.26000
C         -5.00540        0.91733        4.97000
C         -5.07950       -0.30724        4.26000
C         -4.85839       -1.51392        4.97000
C         -4.35486       -2.63263        4.26000
C         -3.59832       -3.59832        4.97000
C         -2.63263       -4.35486        4.26000
C         -1.51392       -4.85839        4.97000
C         -0.30724       -5.07950        4.26000
C          0.91733       -5.00540        4.97000
C          2.08851       -4.64046        4.26000
C          3.13835       -4.00583        4.97000
C          4.00583       -3.13835        4.26000
C          4.64046       -2.08851        4.97000
C          5.00540       -0.91733        4.26000
C          5.07950        0.30724        4.97000
C          4.85839        1.51392        4.26000
C          4.35486        2.63263        4.97000
C          2.63263        4.35486        6.39000
C          1.51392        4.85839        7.10000
C          0.30724        5.07950        6.39000
C         -0.91733        5.00540        7.10000
C         -2.08851        4.64046        6.39000
C         -3.13835        4.00583        7.10000
C         -4.00583        3.13835        6.39000
C         -4.64046        2.08851        7.10000
C         -5.00540        0.91733        6.39000
C         -5.07950       -0.30724        7.10000
C         -4.85839       -1.51392        6.39000
C         -4.35486       -2.63263        7.10000
C         -3.59832       -3.59832        6.39000
C         -2.63263       -4.35486        7.10000
C         -1.51392       -4.85839        6.39000
C         -0.30724       -5.07950        7.10000
C          0.91733       -5.00540        6.39000
C          2.08851       -4.64046        7.10000
C          3.13835       -4.00583        6.39000
C          4.00583       -3.13835        7.10000
C          4.64046       -2.08851        6.39000
C          5.00540       -0.91733        7.10000
C          5.07950        0.30724        6.39000
C          4.85839        1.51392        7.10000
C          4.35486        2.63263        6.39000
C          3.59832        3.59832        7.10000
C          3.59832        3.59832        8.52000
C          2.63263        4.35486        9.23000
C          1.51392        4.85839        8.52000
C          0.30724        5.07950        9.23000
C         -0.91733        5.00540        8.52000
C         -2.08851        4.64046        9.23000
C         -3.13835        4.00583        8.52000
C         -4.00583        3.13835        9.23000
C         -4.64046        2.08851        8.52000
C         -5.00540        0.91733        9.23000
C         -5.07950       -0.30724        8.52000
C         -4.85839       -1.51392        9.23000
C         -4.35486       -2.63263        8.52000
C         -3.59833       -3.59832        9.23000
C         -2.63263       -4.35486        8.52000
C         -1.51392       -4.85839        9.23000
C         -0.30724       -5.07950        8.52000
C          0.91733       -5.00540        9.23000
C          2.08851       -4.64046        8.52000
C          3.13835       -4.00583        9.23000
C          4.00583       -3.13835        8.52000
C          4.64046       -2.08851        9.23000
C          5.00540       -0.91733        8.52000
C          5.07950        0.30724        9.23000
C          4.85839        1.51392        8.52000
C          4.35486        2.63263        9.23000
C          2.63263        4.35486       10.65000
C          1.51392        4.85839       11.36000
C          0.30724        5.07950       10.65000
C         -0.91733        5.00540       11.36000
C         -2.08851        4.64046       10.65000
C         -3.13835        4.00583       11.36000
C         -4.00583        3.13835       10.65000
C         -4.64046        2.08851       11.36000
C         -5.00540        0.91733       10.65000
C         -5.07950       -0.30724       11.36000
C         -4.85839       -1.51392       10.65000
C         -4.35486       -2.63263       11.36000
C         -3.59833       -3.59832       10.65000
C         -2.63263       -4.35486       11.36000
C         -1.51392       -4.85839       10.65000
C         -0.30724       -5.07950       11.36000
C          0.91733       -5.00540       10.65000
C          2.08851       -4.64046       11.36000
C          3.13835       -4.00583       10.65000
C          4.00583       -3.13835       11.36000
C          4.64046       -2.08851       10.65000
C          5.00540       -0.91733       11.36000
C          5.07950        0.30724       10.65000
C          4.85839        1.51392       11.36000
C          4.35486        2.63263       10.65000
C          3.59832        3.59832       11.36000
