72

C          1.66078        1.66078        0.00000
C          0.60790        2.26861        0.71000
C         -0.60790        2.26861       -0.00000
C         -1.66078        1.66078        0.71000
C         -2.26861        0.60790       -0.00000
C         -2.26861       -0.60790        0.71000
C         -1.66078       -1.66078        0.00000
C         -0.60790       -2.26861        0.71000
C          0.60790       -2.26861        0.00000
C          1.66078       -1.66078        0.71000
C          2.26861       -0.60790        0.00000
C          2.26861        0.60790        0.71000
C          0.60790        2.26861        2.13000
C         -0.60790        2.26861        2.84000
C         -1.66078        1.66078        2.13000
C         -2.26861        0.60790        2.84000
C         -2.26861       -0.60790        2.13000
C         -1.66078       -1.66078        2.84000
C         -0.60790       -2.26861        2.13000
C          0.60790       -2.26861        2.84000
C          1.66078       -1.66078        2.13000
C          2.26861       -0.60790        2.84000
C          2.26861        0.60790        2.13000
C          1.66078        1.66078        2.84000
C          1.66078        1.66078        4.26000
C          0.60790        2.26861        4.97000
C         -0.60790        2.26861        4.26000
C         -1.66078        1.66078        4.97000
C         -2.26861        0.60790        4.26000
C         -2.26861       -0.60790        4.97000
C         -1.66078       -1.66078        4.26000
C         -0.60790       -2.26861        4.97000
C          0.60790       -2.26861        4.26000
C          1.66078       -1.66078        4.97000
C          2.26861       -0.60790        4.26000
C          2.26861        0.60790        4.97000
C          0.60790        2.26861        6.39000
C         -0.60790        2.26861        7.10000
C         -1.66078        1.66078        6.39000
C         -2.26861        0.60790        7.10000
C         -2.26861       -0.60790        6.39000
C         -1.66078       -1.66078        7.10000
C         -0.60790       -2.26861        6.39000
C          0.60790       -2.26861        7.10000
C          1.66078       -1.66078        6.39000
C          2.26861       -0.60790        7.10000
C          2.26861        0.60790        6.39000
C          1.66078        1.66078        7.10000
C          1.66078        1.66078        8.52000
C          0.60790        2.26861        9.23000
C         -0.60790        2.26861        8.52000
C         -1.66078        1.66078        9.23000
C         -2.26861        0.60790        8.52000
C         -2.26861       -0.60790        9.23000
C         -1.66078       -1.66078        8.52000
C         -0.60790       -2.26861        9.23000
C          0.60790       -2.26861        8.52000
C          1.66078       -1.66078        9.23000
C          2.26861       -0.60790        8.52000
C          2.26861        0.60790        9.23000
C          0.60790        2.26861       10.65000
C         -0.60790        2.26861       11.36000
C         -1.66078        1.66078       10.65000
C         -2.26861        0.60790       11.36000
C         -2.26861       -0.60790       10.65000
C         -1.66078       -1.66078       11.36000
C         -0.60790       -2.26861       10.65000
C          0.60790       -2.26861       11.36000
C          1.66078       -1.66078       10.65000
C          2.26861       -0.60790       11.36000
C          2.26861        0.60790       10.65000
C          1.66078        1.66078       11.36000
