84

C          5.24542       -0.00000        1.19723
C          4.97216        0.71498        0.00000
C          4.20650        0.00000       -0.96011
C          3.10009        0.71498       -1.49293
C          1.87207        0.00000       -1.49293
C          0.76566        0.71498       -0.96011
C          0.00000        0.00000        0.00000
C         -0.27326        0.71498        1.19723
C         -0.00000       -0.00000        2.39447
C          0.76566        0.71498        3.35457
C          1.87207       -0.00000        3.88739
C          3.10009        0.71498        3.88739
C          4.20650       -0.00000        3.35457
C          4.97216        0.71498        2.39447
C          4.97216        2.13598        0.00000
C          4.20650        2.85097       -0.96011
C          3.10009        2.13598       -1.49293
C          1.87207        2.85097       -1.49293
C          0.76566        2.13598       -0.96011
C          0.00000        2.85097        0.00000
C         -0.27326        2.13598        1.19723
C         -0.00000        2.85097        2.39447
C          0.76566        2.13598        3.35457
C          1.87207        2.85097        3.88739
C          3.10009        2.13598        3.88739
C          4.20650        2.85097        3.35457
C          4.97216        2.13598        2.39447
C          5.24542        2.85097        1.19723
C 5.24542 4.2600000000 1.19723
C 4.97216 4.9749800000 0.00000
C 4.20650 4.2600000000 -0.96011
C 3.10009 4.9749800000 -1.49293
C 1.87207 4.2600000000 -1.49293
C 0.76566 4.9749800000 -0.96011
C 0.00000 4.2600000000 0.00000
C -0.27326 4.9749800000 1.19723
C -0.00000 4.2600000000 2.39447
C 0.76566 4.9749800000 3.35457
C 1.87207 4.2600000000 3.88739
C 3.10009 4.9749800000 3.88739
C 4.20650 4.2600000000 3.35457
C 4.97216 4.9749800000 2.39447
C 4.97216 6.3959800000 0.00000
C 4.20650 7.1109700000 -0.96011
C 3.10009 6.3959800000 -1.49293
C 1.87207 7.1109700000 -1.49293
C 0.76566 6.3959800000 -0.96011
C 0.00000 7.1109700000 0.00000
C -0.27326 6.3959800000 1.19723
C -0.00000 7.1109700000 2.39447
C 0.76566 6.3959800000 3.35457
C 1.87207 7.1109700000 3.88739
C 3.10009 6.3959800000 3.88739
C 4.20650 7.1109700000 3.35457
C 4.97216 6.3959800000 2.39447
C 5.24542 7.1109700000 1.19723
C 5.24542 8.5200000000 1.19723
C 4.97216 9.2349800000 0.00000
C 4.20650 8.5200000000 -0.96011
C 3.10009 9.2349800000 -1.49293
C 1.87207 8.5200000000 -1.49293
C 0.76566 9.2349800000 -0.96011
C 0.00000 8.5200000000 0.00000
C -0.27326 9.2349800000 1.19723
C -0.00000 8.5200000000 2.39447
C 0.76566 9.2349800000 3.35457
C 1.87207 8.5200000000 3.88739
C 3.10009 9.2349800000 3.88739
C 4.20650 8.5200000000 3.35457
C 4.97216 9.2349800000 2.39447
C 4.97216 10.6559800000 0.00000
C 4.20650 11.3709700000 -0.96011
C 3.10009 10.6559800000 -1.49293
C 1.87207 11.3709700000 -1.49293
C 0.76566 10.6559800000 -0.96011
C 0.00000 11.3709700000 0.00000
C -0.27326 10.6559800000 1.19723
C -0.00000 11.3709700000 2.39447
C 0.76566 10.6559800000 3.35457
C 1.87207 11.3709700000 3.88739
C 3.10009 10.6559800000 3.88739
C 4.20650 11.3709700000 3.35457
C 4.97216 10.6559800000 2.39447
C 5.24542 11.3709700000 1.19723
