96

C          5.37549        2.22660        0.00000
C          4.35391        2.90919        0.71393
C          3.14889        3.14889        0.00000
C          1.94386        2.90919        0.71393
C          0.92229        2.22660       -0.00000
C          0.23970        1.20502        0.71393
C          0.00000        0.00000        0.00000
C          0.23970       -1.20502        0.71393
C          0.92229       -2.22660        0.00000
C          1.94386       -2.90919        0.71393
C          3.14889       -3.14889        0.00000
C          4.35391       -2.90919        0.71393
C          5.37549       -2.22660        0.00000
C          6.05808       -1.20502        0.71393
C          6.29778       -0.00000        0.00000
C          6.05808        1.20502        0.71393
C          4.35391        2.90919        2.13493
C          3.14889        3.14889        2.84886
C          1.94386        2.90919        2.13493
C          0.92229        2.22660        2.84886
C          0.23970        1.20502        2.13493
C         -0.00000        0.00000        2.84886
C          0.23970       -1.20502        2.13493
C          0.92229       -2.22660        2.84886
C          1.94386       -2.90919        2.13493
C          3.14889       -3.14889        2.84886
C          4.35391       -2.90919        2.13493
C          5.37549       -2.22660        2.84886
C          6.05808       -1.20502        2.13493
C          6.29778       -0.00000        2.84886
C          6.05808        1.20502        2.13493
C          5.37549        2.22660        2.84886
C          5.37549        2.22660        4.26000
C          4.35391        2.90919        4.97393
C          3.14889        3.14889        4.26000
C          1.94386        2.90919        4.97393
C          0.92229        2.22660        4.26000
C          0.23970        1.20502        4.97393
C         -0.00000        0.00000        4.26000
C          0.23970       -1.20502        4.97393
C          0.92229       -2.22660        4.26000
C          1.94386       -2.90919        4.97393
C          3.14889       -3.14889        4.26000
C          4.35391       -2.90919        4.97393
C          5.37549       -2.22660        4.26000
C          6.05808       -1.20502        4.97393
C          6.29778       -0.00000        4.26000
C          6.05808        1.20502        4.97393
C          4.35391        2.90919        6.39493
C          3.14889        3.14889        7.10886
C          1.94386        2.90919        6.39493
C          0.92229        2.22660        7.10886
C          0.23970        1.20502        6.39493
C         -0.00000        0.00000        7.10886
C          0.23970       -1.20502        6.39493
C          0.92229       -2.22660        7.10886
C          1.94386       -2.90919        6.39493
C          3.14889       -3.14889        7.10886
C          4.35391       -2.90919        6.39493
C          5.37549       -2.22660        7.10886
C          6.05808       -1.20502        6.39493
C          6.29778        0.00000        7.10886
C          6.05808        1.20502        6.39493
C          5.37549        2.22660        7.10886
C          5.37549        2.22660        8.52000
C          4.35391        2.90919        9.23393
C          3.14889        3.14889        8.52000
C          1.94386        2.90919        9.23393
C          0.92229        2.22660        8.52000
C          0.23970        1.20502        9.23393
C         -0.00000        0.00000        8.52000
C          0.23970       -1.20502        9.23393
C          0.92229       -2.22660        8.52000
C          1.94386       -2.90919        9.23393
C          3.14889       -3.14889        8.52000
C          4.35391       -2.90919        9.23393
C          5.37549       -2.22660        8.52000
C          6.05808       -1.20502        9.23393
C          6.29778        0.00000        8.52000
C          6.05808        1.20502        9.23393
C          4.35391        2.90919       10.65493
C          3.14889        3.14889       11.36886
C          1.94386        2.90919       10.65493
C          0.92229        2.22660       11.36886
C          0.23970        1.20502       10.65493
C         -0.00000        0.00000       11.36886
C          0.23970       -1.20502       10.65493
C          0.92229       -2.22660       11.36886
C          1.94386       -2.90919       10.65493
C          3.14889       -3.14889       11.36886
C          4.35391       -2.90919       10.65493
C          5.37549       -2.22660       11.36886
C          6.05808       -1.20502       10.65493
C          6.29778        0.00000       11.36886
C          6.05808        1.20502       10.65493
C          5.37549        2.22660       11.36886
