108

C          3.62992        0.63154       -0.36163
C          3.41625        1.34537       -1.58500
C          2.79851        0.63122       -2.66282
C          1.84787        1.34453       -3.46225
C          0.68250        0.62972       -3.89088
C         -0.56009        1.34258       -3.89348
C         -1.72723        0.62754       -3.47070
C         -2.68105        1.34018       -2.67421
C         -3.30416        0.62537       -1.59997
C         -3.52251        1.33820       -0.37712
C         -3.30966        0.62483        0.84695
C         -2.69231        1.33842        1.92450
C         -1.74122        0.62603        2.72442
C         -0.57585        1.34025        3.15222
C          0.66740        0.62796        3.15494
C          1.83426        1.34229        2.73204
C          2.78883        0.63011        1.93566
C          3.41181        1.34434        0.86178
C          3.41520        2.76189       -1.58482
C          2.79597        3.47569       -2.66136
C          1.84638        2.76173       -3.46175
C          0.67956        3.47498       -3.88847
C         -0.56195        2.75960       -3.89222
C         -1.73024        3.47205       -3.46883
C         -2.68350        2.75678       -2.67368
C         -3.30790        3.46911       -1.59911
C         -3.52456        2.75488       -0.37645
C         -3.31273        3.46789        0.84767
C         -2.69334        2.75458        1.92493
C         -1.74427        3.46848        2.72529
C         -0.57720        2.75630        3.15326
C          0.66405        3.47073        3.15654
C          1.83270        2.75883        2.73278
C          2.78528        3.47327        1.93701
C          3.40993        2.76069        0.86210
C          3.62687        3.47479       -0.36017
C          3.62580        4.89153       -0.35909
C          3.41238        5.60568       -1.58220
C          2.79400        4.89247       -2.66018
C          1.84318        5.60629       -3.45887
C          0.67767        4.89194       -3.88771
C         -0.56492        5.60485       -3.88981
C         -1.73202        4.88937       -3.46774
C         -2.68632        5.60135       -2.67127
C         -3.30960        4.88576       -1.59766
C         -3.52846        5.59787       -0.37447
C         -3.31505        4.88410        0.84921
C         -2.69759        5.59755        1.92692
C         -1.74596        4.88508        2.72606
C         -0.58068        5.59952        3.15381
C          0.66252        4.88712        3.15647
C          1.82943        5.60156        2.73412
C          2.78435        4.88945        1.93805
C          3.40792        5.60375        0.86465
C          3.41184        7.02197       -1.58131
C          2.79236        7.73642       -2.65718
C          1.84175        7.02347       -3.45712
C          0.67488        7.73725       -3.88271
C         -0.56669        7.02195       -3.88693
C         -1.73516        7.73407       -3.46354
C         -2.68888        7.01803       -2.66969
C         -3.31459        7.72951       -1.59532
C         -3.53102        7.01460       -0.37307
C         -3.31961        7.72715        0.85140
C         -2.69891        7.01380        1.92786
C         -1.74932        7.72799        2.72746
C         -0.58202        7.01580        3.15472
C          0.65912        7.73044        3.15789
C          1.82784        7.01822        2.73491
C          2.78148        7.73245        1.94030
C          3.40658        7.01990        0.86559
C          3.62443        7.73398       -0.35641
C          3.62467        9.15046       -0.35477
C          3.41145        9.86505       -1.57752
C          2.79104        9.15302       -2.65503
C          1.83936        9.86772       -3.45171
C          0.67316        9.15423       -3.88006
C         -0.56933        9.86735       -3.88112
C         -1.73676        9.15153       -3.46069
C         -2.69237        9.86278       -2.66513
C         -3.31686        9.14617       -1.59297
C         -3.53732        9.85748       -0.36963
C         -3.32284        9.14334        0.85359
C         -2.70472        9.85695        1.93089
C         -1.75111        9.14482        2.72807
C         -0.58544        9.85985        3.15399
C          0.65763        9.14714        3.15701
C          1.82509        9.86130        2.73573
C          2.78115        9.14857        1.94152
C          3.40706        9.86236        0.86913
C          3.41266       11.28112       -1.57599
C          2.79163       11.99658       -2.65011
C          1.83847       11.28488       -3.44821
C          0.67110       11.99925       -3.87088
C         -0.57074       11.28446       -3.87591
C         -1.73956       11.99626       -3.45286
C         -2.69507       11.27956       -2.66205
C         -3.32402       11.99019       -1.58888
C         -3.54139       11.27423       -0.36747
C         -3.33130       11.98644        0.85735
C         -2.70740       11.27320        1.93237
C         -1.75568       11.98817        2.72890
C         -0.58675       11.27655        3.15363
C          0.65461       11.99135        3.15593
C          1.82407       11.27822        2.73597
C          2.78128       11.99130        1.94409
C          3.40780       11.27824        0.87054
C          3.62781       11.99229       -0.35116
