12

O -2.6631049153 0. 0. 
C -1.4449509826 0. 0. 
C -0.6694616532 0. 1.267796827 
C -0.6694616532 0. -1.267796827 
C 0.6694616532 0. 1.267796827 
C 0.6694616532 0. -1.267796827 
C 1.4449509826 0. 0. 
O 2.6631049153 0. 0. 
H -1.2568144769 0. 2.1793269302 
H -1.2568144769 0. -2.1793269302 
H 1.2568144769 0. 2.1793269302 
H 1.2568144769 0. -2.1793269302 
