21

F 1.0015420855 -2.1260486096 0. 
B -0.0577669934 -1.2328305693 0. 
N 0.031608439 -0.2846472396 1.2509784808 
C 0.1026306422 -0.6588648323 2.5332782356 
C 0.0842191923 0.4733364318 3.3752659041 
C -0.0035126782 1.5830967162 2.5500617028 
C -0.03469518 1.1060111917 1.2146902492 
C -0.0741027839 1.7794810469 0. 
C -0.03469518 1.1060111917 -1.2146902492 
C -0.0035126782 1.5830967162 -2.5500617028 
C 0.0842191923 0.4733364318 -3.3752659041 
C 0.1026306422 -0.6588648323 -2.5332782356 
N 0.031608439 -0.2846472396 -1.2509784808 
F -1.2780649191 -1.8930005222 0. 
H 0.1618480809 -1.7034744868 2.799787965 
H 0.1343757194 0.4569354706 4.452477495 
H -0.0343576416 2.6218045955 2.8426805289 
H -0.1188328068 2.8622194604 0. 
H -0.0343576416 2.6218045955 -2.8426805289 
H 0.1343757194 0.4569354706 -4.452477495 
H 0.1618480809 -1.7034744868 -2.799787965 
