18

C 0. -0.6750494541 1.2312894391 
C 0. -1.4715411809 -0.0437765348 
C 0. 0.6750494541 1.2312894391 
Cl 0. -1.6081538881 2.6831769069 
O 0. -2.6828236622 -0.019717183 
C 0. -0.7007674562 -1.3172027144 
C 0. 1.4715411809 -0.0437765348 
Cl 0. 1.6081538881 2.6831769069 
C 0. 0.6980735752 -3.729513508 
C 0. 1.3969025408 -2.5274146352 
C 0. -0.6980735752 -3.729513508 
C 0. -1.3969025408 -2.5274146352 
C 0. 0.7007674562 -1.3172027144 
O 0. 2.6828236622 -0.019717183 
H 0. 1.2401952675 -4.6679249226 
H 0. 2.4792723503 -2.5024518882 
H 0. -1.2401952675 -4.6679249226 
H 0. -2.4792723503 -2.5024518882 
