14

C 0. -1.2063113359 1.3442129113 
C 0. -1.2079629661 -0.0582825739 
C 0. 0. 2.0352125071 
C 0. 1.2063113359 1.3442129113 
C 0. 1.2079629661 -0.0582825739 
C 0. 2.4487403097 -0.7724882785 
C 0. 0. -0.7625076575 
C 0. -2.4487403097 -0.7724882785 
N 0. -3.4524585963 -1.3429849656 
N 0. 3.4524585963 -1.3429849656 
H 0. -2.1479920885 1.8783791108 
H 0. 0. 3.1182180172 
H 0. 2.1479920885 1.8783791108 
H 0. 0. -1.8444479451 
