18

O 0. -2.6811689661 -1.0603985475 
O 0. 2.6811689661 -1.0603985475 
C 0. -0.7029069879 0.2604009701 
C 0. 0.7029069879 0.2604009701 
C 0. -1.4629711803 -1.0239623203 
C 0. 1.4629711803 -1.0239623203 
C 0. -1.3972055323 1.4715146701 
C 0. 1.3972055323 1.4715146701 
C 0. -0.6696974242 -2.2787884093 
C 0. 0.6696974242 -2.2787884093 
C 0. -0.6983676015 2.6735812072 
C 0. 0.6983676015 2.6735812072 
H 0. -2.4800041254 1.4456373816 
H 0. 2.4800041254 1.4456373816 
H 0. -1.2509242752 -3.1944951808 
H 0. 1.2509242752 -3.1944951808 
H 0. -1.2396598979 3.6127279189 
H 0. 1.2396598979 3.6127279189 
