14

O -0.0002963796 1.0843001577 2.2896107833 
N 0. 0. 1.7231809405 
O 0.0002963796 -1.0843001577 2.2896107833 
C 0. 0. 0.2418283529 
C -0.0017885262 -1.2180059185 -0.4291097185 
C 0.0017885262 1.2180059185 -0.4291097185 
C -0.0018409331 -1.2098571232 -1.8199894946 
C 0. 0. -2.5138428767 
C 0.0018409331 1.2098571232 -1.8199894946 
H -0.0029937688 -2.1372428161 0.139489933 
H 0.0029937688 2.1372428161 0.139489933 
H -0.0033250839 -2.1482241335 -2.3614253773 
H 0. 0. -3.5977150985 
H 0.0033250839 2.1482241335 -2.3614253773 
