20

N 4.1632661969 -2.1961791294 0. 
N 4.1632661969 2.1961791294 0. 
N -4.1632661969 -2.1961791294 0. 
N -4.1632661969 2.1961791294 0. 
C 1.4240352915 0. 0. 
C -1.4240352915 0. 0. 
C 0.6760276318 1.2371376569 0. 
C 0.6760276318 -1.2371376569 0. 
C -0.6760276318 1.2371376569 0. 
C -0.6760276318 -1.2371376569 0. 
C 2.8095243427 0. 0. 
C -2.8095243427 0. 0. 
C 3.5602011001 -1.2096873054 0. 
C 3.5602011001 1.2096873054 0. 
C -3.5602011001 -1.2096873054 0. 
C -3.5602011001 1.2096873054 0. 
H 1.2193577737 2.1740763353 0. 
H 1.2193577737 -2.1740763353 0. 
H -1.2193577737 2.1740763353 0. 
H -1.2193577737 -2.1740763353 0. 
