15

C 0. -1.4239255909 -0.1107642626 
C 0. -0.7051107312 -1.3210096545 
C 0. -0.6949366435 1.069723519 
Cl 0. -3.1513162778 -0.0903702389 
C 0. 0.7051107312 -1.3210096545 
Cl 0. -1.5648491092 -2.8225007817 
C 0. 0.6949366435 1.069723519 
C 0. -1.1486184148 2.4891281673 
C 0. 1.4239255909 -0.1107642626 
Cl 0. 1.5648491092 -2.8225007817 
C 0. 1.1486184148 2.4891281673 
Cl 0. 3.1513162778 -0.0903702389 
O 0. 0. 3.2776653176 
O 0. 2.2401617262 2.9577968677 
O 0. -2.2401617262 2.9577968677 
