12

C 0.67003056 -1.26498716 0. 
C 1.45776639 0. 0. 
C -0.67003056 -1.26498716 0. 
F 1.3789453 -2.38411491 0. 
C -1.45776639 0. 0. 
F -1.3789453 -2.38411491 0. 
C -0.67003056 1.26498716 0. 
O -2.66566606 0. 0. 
C 0.67003056 1.26498716 0. 
F -1.3789453 2.38411491 0. 
F 1.3789453 2.38411491 0. 
O 2.66566606 0. 0. 
