14

C 0.6930506949 1.2047206663 0. 
F 1.3470775243 2.3619430693 0. 
C 1.4064229107 0. 0. 
C -0.6930506949 1.2047206663 0. 
F -1.3470775243 2.3619430693 0. 
C -1.4064229107 0. 0. 
C -0.6930506949 -1.2047206663 0. 
C -2.8297503857 0. 0. 
C 0.6930506949 -1.2047206663 0. 
F -1.3470775243 -2.3619430693 0. 
F 1.3470775243 -2.3619430693 0. 
C 2.8297503857 0. 0. 
N -3.9833210037 0. 0. 
N 3.9833210037 0. 0. 
